/*--------------------------------*- C++ -*----------------------------------*\
| =========                 |                                                 |
| \\      /  F ield         | OpenFOAM: The Open Source CFD Toolbox           |
|  \\    /   O peration     | Version:  v1906                                 |
|   \\  /    A nd           | Web:      www.OpenFOAM.com                      |
|    \\/     M anipulation  |                                                 |
\*---------------------------------------------------------------------------*/
FoamFile
{
    version     2.0;
    format      ascii;
    class       volScalarField;
    location    "0/rightSolid";
    object      epsilon;
}
// * * * * * * * * * * * * * * * * * * * * * * * * * * * * * * * * * * * * * //

dimensions      [0 2 -3 0 0 0 0];


internalField   uniform 0.01;

boundaryField
{
    maxX
    {
        type            calculated;
        value           uniform 0.01;
    }
    minZ
    {
        type            calculated;
        value           uniform 0.01;
    }
    maxZ
    {
        type            calculated;
        value           uniform 0.01;
    }
    rightSolid_to_bottomAir
    {
        type            calculated;
        value           uniform 0;
    }
    rightSolid_to_topAir
    {
        type            calculated;
        value           uniform 0;
    }
    rightSolid_to_heater
    {
        type            calculated;
        value           uniform 0;
    }
}


// ************************************************************************* //
