/*--------------------------------*- C++ -*----------------------------------*\
| =========                 |                                                 |
| \\      /  F ield         | OpenFOAM: The Open Source CFD Toolbox           |
|  \\    /   O peration     | Version:  v1912                                 |
|   \\  /    A nd           | Website:  www.openfoam.com                      |
|    \\/     M anipulation  |                                                 |
\*---------------------------------------------------------------------------*/
FoamFile
{
    version     2.0;
    format      ascii;
    class       polyBoundaryMesh;
    location    "constant/oil/polyMesh";
    object      boundary;
}
// * * * * * * * * * * * * * * * * * * * * * * * * * * * * * * * * * * * * * //


7
(
    maxY
    {
        type            wall;
        inGroups        1 ( wall );
        nFaces          900;
        startFace       104676;
    }

    minX
    {
        type            wall;
        inGroups        1 ( wall );
        nFaces          900;
        startFace       105576;
    }

    maxX
    {
        type            wall;
        inGroups        1 ( wall );
        nFaces          900;
        startFace       106476;
    }

    minY
    {
        type            wall;
        inGroups        1 ( wall );
        nFaces          900;
        startFace       107376;
    }

    minZ
    {
        type            wall;
        inGroups        1 ( wall );
        nFaces          900;
        startFace       108276;
    }

    maxZ
    {
        type            wall;
        inGroups        1 ( wall );
        nFaces          900;
        startFace       109176;
    }

    oil_to_sphere
    {
        type            mappedWall;
        inGroups        1 ( wall );
        nFaces          1536;
        startFace       110076;
        sampleMode      nearestPatchFace;
        sampleRegion    sphere;
        samplePatch     sphere_to_oil;
    }

)


// ************************************************************************* //
