/*--------------------------------*- C++ -*----------------------------------*\
| =========                 |                                                 |
| \\      /  F ield         | OpenFOAM: The Open Source CFD Toolbox           |
|  \\    /   O peration     | Version:  v1912                                 |
|   \\  /    A nd           | Website:  www.openfoam.com                      |
|    \\/     M anipulation  |                                                 |
\*---------------------------------------------------------------------------*/
FoamFile
{
    version     2.0;
    format      ascii;
    class       polyBoundaryMesh;
    location    "constant/polyMesh";
    object      boundary;
}
// * * * * * * * * * * * * * * * * * * * * * * * * * * * * * * * * * * * * * //

9
(
    maxY
    {
        type            wall;
        inGroups        1(wall);
        nFaces          1980;
        startFace       263778;
    }
    minX
    {
        type            wall;
        inGroups        1(wall);
        nFaces          900;
        startFace       265758;
    }
    maxX
    {
        type            wall;
        inGroups        1(wall);
        nFaces          900;
        startFace       266658;
    }
    minY
    {
        type            wall;
        inGroups        1(wall);
        nFaces          900;
        startFace       267558;
    }
    minZ
    {
        type            wall;
        inGroups        1(wall);
        nFaces          900;
        startFace       268458;
    }
    maxZ
    {
        type            wall;
        inGroups        1(wall);
        nFaces          900;
        startFace       269358;
    }
    sphere
    {
        type            wall;
        inGroups        1(wall);
        nFaces          0;
        startFace       270258;
    }
    sphere_to_oil
    {
        type            wall;
        inGroups        1(wall);
        nFaces          0;
        startFace       270258;
    }
    oil_to_sphere
    {
        type            wall;
        inGroups        1(wall);
        nFaces          0;
        startFace       270258;
    }
)

// ************************************************************************* //
